1EBZ-BEC
PharmScreen

 89 92  0  0  0  0            999 V2000
    9.7610   24.2260    2.2630 C   0  0  0  0  0  0  0  0  0  0  0  0
    9.1790   25.4450    1.8530 C   0  0  0  0  0  0  0  0  0  0  0  0
    7.7780   25.6490    1.9890 C   0  0  0  0  0  0  0  0  0  0  0  0
    6.9561   24.6219    2.5410 C   0  0  0  0  0  0  0  0  0  0  0  0
    7.5370   23.3920    2.9570 C   0  0  0  0  0  0  0  0  0  0  0  0
    8.9421   23.1929    2.8180 C   0  0  0  0  0  0  0  0  0  0  0  0
   11.2600   24.0119    2.1290 C   0  0  0  0  0  0  0  0  0  0  0  0
   11.8959   23.5860    3.3560 O   0  0  0  0  0  0  0  0  0  0  0  0
   12.1520   24.6650    4.3340 C   0  0  0  0  0  0  0  0  0  0  0  0
   13.5659   24.4580    4.9970 C   0  0  0  0  0  0  0  0  0  0  0  0
   13.9900   23.0200    4.9360 C   0  0  0  0  0  0  0  0  0  0  0  0
   15.0820   22.6700    5.9440 C   0  0  0  0  0  0  0  0  0  0  0  0
   14.6060   23.0810    7.2720 O   0  0  0  0  0  0  0  0  0  0  0  0
   15.6530   23.4230    8.2230 C   0  0  0  0  0  0  0  0  0  0  0  0
   16.4360   22.2180    8.7480 C   0  0  0  0  0  0  0  0  0  0  0  0
   15.7560   21.1840    9.4800 C   0  0  0  0  0  0  0  0  0  0  0  0
   16.4880   20.0480    9.9520 C   0  0  0  0  0  0  0  0  0  0  0  0
   17.8850   19.9480    9.6910 C   0  0  0  0  0  0  0  0  0  0  0  0
   18.5560   20.9680    8.9670 C   0  0  0  0  0  0  0  0  0  0  0  0
   17.8340   22.1060    8.4909 C   0  0  0  0  0  0  0  0  0  0  0  0
   15.2540   21.1910    5.8510 C   0  0  0  0  0  0  0  0  0  0  0  0
   14.2730   20.5029    6.1259 O   0  0  0  0  0  0  0  0  0  0  0  0
   16.4220   20.6989    5.5049 N   0  0  0  0  0  0  0  0  0  0  0  0
   16.7770   19.2960    5.3840 C   0  0  0  0  0  0  0  0  0  0  0  0
   16.7260   18.8500    3.9360 C   0  0  0  0  0  0  0  0  0  0  0  0
   17.6880   17.8480    3.6580 C   0  0  0  0  0  0  0  0  0  0  0  0
   17.8370   17.2720    2.3640 C   0  0  0  0  0  0  0  0  0  0  0  0
   16.9780   17.7310    1.3270 C   0  0  0  0  0  0  0  0  0  0  0  0
   15.9940   18.7440    1.5809 C   0  0  0  0  0  0  0  0  0  0  0  0
   15.8680   19.3060    2.8900 C   0  0  0  0  0  0  0  0  0  0  0  0
   18.4690   17.5380    4.9149 C   0  0  0  0  0  0  0  0  0  0  0  0
   18.1720   18.8000    5.7720 C   0  0  0  0  0  0  0  0  0  0  0  0
   19.0751   19.8480    5.4189 O   0  0  0  0  0  0  0  0  0  0  0  0
   14.4880   22.7520    3.5710 O   0  0  0  0  0  0  0  0  0  0  0  0
   14.6289   25.1940    4.3310 O   0  0  0  0  0  0  0  0  0  0  0  0
   11.0080   24.7130    5.3480 C   0  0  0  0  0  0  0  0  0  0  0  0
   10.7460   23.6860    5.9880 O   0  0  0  0  0  0  0  0  0  0  0  0
   10.3370   25.8620    5.4890 N   0  0  0  0  0  0  0  0  0  0  0  0
    9.2230   26.0329    6.4170 C   0  0  0  0  0  0  0  0  0  0  0  0
    9.3910   26.4240    7.9540 C   0  0  0  0  0  0  0  0  0  0  0  0
    8.6010   27.6850    8.4190 C   0  0  0  0  0  0  0  0  0  0  0  0
   10.8780   26.5090    8.4220 C   0  0  0  0  0  0  0  0  0  0  0  0
    8.2840   26.9760    5.6730 C   0  0  0  0  0  0  0  0  0  0  0  0
    8.7459   28.0030    5.1260 O   0  0  0  0  0  0  0  0  0  0  0  0
    6.9590   26.6040    5.6740 N   0  0  0  0  0  0  0  0  0  0  0  0
    6.0160   27.4650    4.9860 C   0  0  0  0  0  0  0  0  0  0  0  0
    9.7999   26.2191    1.4372 H   0  0  0  0  0  0  0  0  0  0  0  0
    7.3389   26.5797    1.6747 H   0  0  0  0  0  0  0  0  0  0  0  0
    5.8961   24.7764    2.6433 H   0  0  0  0  0  0  0  0  0  0  0  0
    6.9185   22.6167    3.3743 H   0  0  0  0  0  0  0  0  0  0  0  0
    9.3852   22.2639    3.1315 H   0  0  0  0  0  0  0  0  0  0  0  0
   11.4535   23.2371    1.3726 H   0  0  0  0  0  0  0  0  0  0  0  0
   11.7386   24.9531    1.8205 H   0  0  0  0  0  0  0  0  0  0  0  0
   12.1413   25.6229    3.7932 H   0  0  0  0  0  0  0  0  0  0  0  0
   13.5114   24.8266    6.0319 H   0  0  0  0  0  0  0  0  0  0  0  0
   13.1091   22.4003    5.1595 H   0  0  0  0  0  0  0  0  0  0  0  0
   16.0501   23.1680    5.7866 H   0  0  0  0  0  0  0  0  0  0  0  0
   15.1700   23.9413    9.0646 H   0  0  0  0  0  0  0  0  0  0  0  0
   16.3411   24.1136    7.7134 H   0  0  0  0  0  0  0  0  0  0  0  0
   14.7005   21.2617    9.6735 H   0  0  0  0  0  0  0  0  0  0  0  0
   15.9870   19.2708   10.5023 H   0  0  0  0  0  0  0  0  0  0  0  0
   18.4368   19.0944   10.0441 H   0  0  0  0  0  0  0  0  0  0  0  0
   19.6116   20.8809    8.7778 H   0  0  0  0  0  0  0  0  0  0  0  0
   18.3432   22.8771    7.9398 H   0  0  0  0  0  0  0  0  0  0  0  0
   17.1721   21.4761    5.2965 H   0  0  0  0  0  0  0  0  0  0  0  0
   16.0214   18.9438    6.1015 H   0  0  0  0  0  0  0  0  0  0  0  0
   18.5761   16.5131    2.1759 H   0  0  0  0  0  0  0  0  0  0  0  0
   17.0709   17.3103    0.3410 H   0  0  0  0  0  0  0  0  0  0  0  0
   15.3502   19.0819    0.7878 H   0  0  0  0  0  0  0  0  0  0  0  0
   15.1326   20.0666    3.0859 H   0  0  0  0  0  0  0  0  0  0  0  0
   18.0907   16.6066    5.3613 H   0  0  0  0  0  0  0  0  0  0  0  0
   19.5337   17.4189    4.6651 H   0  0  0  0  0  0  0  0  0  0  0  0
   18.3031   18.6102    6.8476 H   0  0  0  0  0  0  0  0  0  0  0  0
   19.0125   20.8221    5.9262 H   0  0  0  0  0  0  0  0  0  0  0  0
   14.8527   21.7487    3.3057 H   0  0  0  0  0  0  0  0  0  0  0  0
   15.6615   25.1276    4.7045 H   0  0  0  0  0  0  0  0  0  0  0  0
   10.6636   26.7038    4.8607 H   0  0  0  0  0  0  0  0  0  0  0  0
    8.9137   24.9844    6.5386 H   0  0  0  0  0  0  0  0  0  0  0  0
    8.9248   25.5820    8.4866 H   0  0  0  0  0  0  0  0  0  0  0  0
    7.5569   27.6086    8.0813 H   0  0  0  0  0  0  0  0  0  0  0  0
    9.0612   28.5859    7.9869 H   0  0  0  0  0  0  0  0  0  0  0  0
    8.6275   27.7501    9.5167 H   0  0  0  0  0  0  0  0  0  0  0  0
   11.4200   25.6126    8.0860 H   0  0  0  0  0  0  0  0  0  0  0  0
   10.9140   26.5692    9.5198 H   0  0  0  0  0  0  0  0  0  0  0  0
   11.3477   27.4049    7.9901 H   0  0  0  0  0  0  0  0  0  0  0  0
    6.6060   25.6895    6.1731 H   0  0  0  0  0  0  0  0  0  0  0  0
    5.0040   27.0425    5.0714 H   0  0  0  0  0  0  0  0  0  0  0  0
    6.2941   27.5390    3.9243 H   0  0  0  0  0  0  0  0  0  0  0  0
    6.0348   28.4665    5.4406 H   0  0  0  0  0  0  0  0  0  0  0  0
  1  2  2  0  0  0  0
  1  6  1  0  0  0  0
  1  7  1  0  0  0  0
  2  3  1  0  0  0  0
  2 47  1  0  0  0  0
  3  4  2  0  0  0  0
  3 48  1  0  0  0  0
  4  5  1  0  0  0  0
  4 49  1  0  0  0  0
  5  6  2  0  0  0  0
  5 50  1  0  0  0  0
  6 51  1  0  0  0  0
  7 52  1  0  0  0  0
  7 53  1  0  0  0  0
  7  8  1  0  0  0  0
  8  9  1  0  0  0  0
  9 36  1  0  0  0  0
  9 54  1  0  0  0  0
  9 10  1  0  0  0  0
 10 35  1  0  0  0  0
 10 55  1  0  0  0  0
 10 11  1  0  0  0  0
 11 34  1  0  0  0  0
 11 56  1  0  0  0  0
 11 12  1  0  0  0  0
 12 21  1  0  0  0  0
 12 57  1  0  0  0  0
 12 13  1  0  0  0  0
 13 14  1  0  0  0  0
 14 58  1  0  0  0  0
 14 59  1  0  0  0  0
 14 15  1  0  0  0  0
 15 16  2  0  0  0  0
 15 20  1  0  0  0  0
 16 17  1  0  0  0  0
 16 60  1  0  0  0  0
 17 18  2  0  0  0  0
 17 61  1  0  0  0  0
 18 19  1  0  0  0  0
 18 62  1  0  0  0  0
 19 20  2  0  0  0  0
 19 63  1  0  0  0  0
 20 64  1  0  0  0  0
 21 22  2  0  0  0  0
 21 23  1  0  0  0  0
 23 24  1  0  0  0  0
 23 65  1  0  0  0  0
 24 25  1  0  0  0  0
 24 32  1  0  0  0  0
 24 66  1  0  0  0  0
 25 26  1  0  0  0  0
 25 30  2  0  0  0  0
 26 27  2  0  0  0  0
 26 31  1  0  0  0  0
 27 67  1  0  0  0  0
 27 28  1  0  0  0  0
 28 68  1  0  0  0  0
 28 29  2  0  0  0  0
 29 69  1  0  0  0  0
 29 30  1  0  0  0  0
 30 70  1  0  0  0  0
 31 71  1  0  0  0  0
 31 72  1  0  0  0  0
 31 32  1  0  0  0  0
 32 33  1  0  0  0  0
 32 73  1  0  0  0  0
 33 74  1  0  0  0  0
 34 75  1  0  0  0  0
 35 76  1  0  0  0  0
 36 37  2  0  0  0  0
 36 38  1  0  0  0  0
 38 39  1  0  0  0  0
 38 77  1  0  0  0  0
 39 40  1  0  0  0  0
 39 43  1  0  0  0  0
 39 78  1  0  0  0  0
 40 41  1  0  0  0  0
 40 42  1  0  0  0  0
 40 79  1  0  0  0  0
 41 80  1  0  0  0  0
 41 81  1  0  0  0  0
 41 82  1  0  0  0  0
 42 83  1  0  0  0  0
 42 84  1  0  0  0  0
 42 85  1  0  0  0  0
 43 44  2  0  0  0  0
 43 45  1  0  0  0  0
 45 46  1  0  0  0  0
 45 86  1  0  0  0  0
 46 87  1  0  0  0  0
 46 88  1  0  0  0  0
 46 89  1  0  0  0  0
V    1   0.0000    0.1842   -0.0943   -0.0879    0.3591   0
V    2   0.0000    0.1695   -0.0943   -0.1026    0.3664   0
V    3   0.0000    0.1769   -0.0796   -0.1099    0.3664   0
V    4   0.0000    0.1695   -0.0870   -0.1026    0.3591   0
V    5   0.0000    0.1769   -0.0870   -0.1026    0.3664   0
V    6   0.0000    0.1622   -0.0943   -0.1026    0.3664   0
V    7   0.0000    0.0743   -0.0430   -0.0513    0.1686   0
V    8   0.0000   -0.0357   -0.5267   -0.1686    0.6596   0
V    9   0.0000    0.0450   -0.0503   -0.0366    0.1246   0
V   10   0.0000    0.0376   -0.0503   -0.0660    0.1612   0
V   11   0.0000   -0.0063   -0.0503   -0.0440    0.0879   0
V   12   0.0000    0.0303   -0.0503   -0.0440    0.1173   0
V   13   0.0000   -0.3654   -0.8858   -0.1539    0.6742   0
V   14   0.0000    0.0523   -0.0723   -0.0513    0.1686   0
V   15   0.0000    0.2209   -0.0723   -0.0879    0.3738   0
V   16   0.0000    0.1989   -0.0650   -0.1026    0.3738   0
V   17   0.0000    0.1989   -0.0650   -0.1026    0.3664   0
V   18   0.0000    0.1915   -0.0650   -0.1099    0.3591   0
V   19   0.0000    0.1989   -0.0650   -0.1026    0.3664   0
V   20   0.0000    0.1842   -0.0796   -0.1099    0.3664   0
V   21   0.0000    0.1915   -0.0503   -0.0733    0.3151   0
V   22   0.0000   -2.1683   -2.9378   -0.2345    1.0040   A
V   23   0.0000    0.6166    0.0376   -0.1466    0.7255   D
V   24   0.0000    0.0376   -0.0503   -0.0366    0.1246   0
V   25   0.0000    0.1182   -0.1602   -0.0806    0.3518   0
V   26   0.0000    0.1622   -0.1309   -0.0879    0.3811   0
V   27   0.0000    0.1695   -0.0943   -0.1026    0.3738   0
V   28   0.0000    0.1769   -0.0796   -0.1026    0.3664   0
V   29   0.0000    0.1622   -0.1016   -0.1099    0.3811   0
V   30   0.0000    0.1476   -0.1163   -0.1026    0.3738   0
V   31   0.0000    0.0523   -0.0650   -0.0513    0.1759   0
V   32   0.0000    0.0230   -0.0576   -0.0513    0.1392   0
V   33   0.0000   -0.7026   -1.3328   -0.1246    0.7622  AD
V   34   0.0000   -0.2555   -0.8858   -0.1539    0.7915  AD
V   35   0.0000   -0.4974   -1.1203   -0.1392    0.7695  AD
V   36   0.0000    0.2062   -0.0503   -0.0806    0.3371   0
V   37   0.0000   -1.6187   -2.4175   -0.2418    1.0334   A
V   38   0.0000    0.5067   -0.0650   -0.1319    0.6962   D
V   39   0.0000    0.0303   -0.0650   -0.0366    0.1319   0
V   40   0.0000    0.0376   -0.0503   -0.0366    0.1246   0
V   41   0.0000    0.0669   -0.0576   -0.0513    0.1759   0
V   42   0.0000    0.0889   -0.0503   -0.0586    0.1979   0
V   43   0.0000    0.1769   -0.0503   -0.0660    0.2931   0
V   44   0.0000   -2.0437   -2.8719   -0.2492    1.0773   A
V   45   0.0000    0.3308   -0.3141   -0.1466    0.7915   D
V   46   0.0000    0.0669   -0.0723   -0.0513    0.1905   0
V   47   0.0000    0.1842   -0.0943   -0.2052    0.4764   0
V   48   0.0000    0.1915   -0.0870   -0.2052    0.4837   0
V   49   0.0000    0.1476   -0.1236   -0.2052    0.4837   0
V   50   0.0000    0.1842   -0.1016   -0.2052    0.4837   0
V   51   0.0000    0.2868    0.0083   -0.2052    0.4837   0
V   52   0.0000    0.2722   -0.0063   -0.2052    0.4910   0
V   53   0.0000    0.1622   -0.0870   -0.1832    0.4397   0
V   54   0.0000    0.1476   -0.1016   -0.1832    0.4324   0
V   55   0.0000    0.1622   -0.0943   -0.1905    0.4544   0
V   56   0.0000    0.2502    0.0083   -0.1832    0.4324   0
V   57   0.0000    0.1036   -0.1456   -0.1832    0.4324   0
V   58   0.0000    0.1256   -0.1602   -0.2052    0.4837   0
V   59   0.0000    0.0816   -0.1822   -0.1905    0.4471   0
V   60   0.0000    0.2282   -0.0503   -0.2052    0.4837   0
V   61   0.0000    0.1476   -0.1309   -0.2052    0.4837   0
V   62   0.0000    0.1109   -0.1602   -0.2052    0.4837   0
V   63   0.0000    0.1256   -0.1602   -0.2052    0.4837   0
V   64   0.0000    0.0376   -0.2335   -0.1979    0.4764   0
V   65   0.0000   -0.8931   -0.9884   -0.1319    0.2272   0
V   66   0.0000    0.1769   -0.0576   -0.1832    0.4251   0
V   67   0.0000    0.1622   -0.1163   -0.2052    0.4837   0
V   68   0.0000    0.1622   -0.1089   -0.2052    0.4837   0
V   69   0.0000    0.1769   -0.1089   -0.2052    0.4837   0
V   70   0.0000    0.0376   -0.2115   -0.1905    0.4471   0
V   71   0.0000    0.1329   -0.1529   -0.2052    0.4910   0
V   72   0.0000    0.2062   -0.0723   -0.2052    0.4910   0
V   73   0.0000    0.1476   -0.1309   -0.2125    0.4910   0
V   74   0.0000   -1.2009   -1.2742   -0.1979    0.2712   0
V   75   0.0000   -0.2189   -0.2775   -0.1686    0.2199   0
V   76   0.0000   -0.9517   -1.0250   -0.1979    0.2712   0
V   77   0.0000   -0.4387   -0.5340   -0.1246    0.2272   0
V   78   0.0000    0.1402   -0.0943   -0.1686    0.3958   0
V   79   0.0000    0.1622   -0.1016   -0.1905    0.4544   0
V   80   0.0000    0.1622   -0.1016   -0.1979    0.4544   0
V   81   0.0000    0.2355   -0.0283   -0.2052    0.4837   0
V   82   0.0000    0.1842   -0.0943   -0.2125    0.4837   0
V   83   0.0000    0.2428   -0.0357   -0.2052    0.4837   0
V   84   0.0000    0.1915   -0.0723   -0.2125    0.4764   0
V   85   0.0000    0.2135   -0.0576   -0.2125    0.4837   0
V   86   0.0000   -1.6333   -1.7286   -0.1319    0.2272   0
V   87   0.0000    0.0596   -0.2189   -0.2125    0.4764   0
V   88   0.0000    0.1989   -0.0723   -0.2052    0.4764   0
V   89   0.0000    0.1915   -0.0870   -0.2052    0.4764   0
M  END
> <PHA_LIPINSKI_HB_ACCEPTORS>
11

> <PHA_LIPINSKI_HB_DONORS>
6

> <PHA_MOLECULAR_WEIGHT>
633

> <PHA_WILDMAN-CRIPPEN_LOGP>
1.540300

> <PHA_LIPINSKI_RO5_COMPLIANCE>
1/4

> <PHA_SMILES>
CNC(=O)C(NC(=O)C(OCc1ccccc1)C(O)C(O)C(OCc1ccccc1)C(=O)NC1c2ccccc2CC1O)C(C)C

> <PHA_INCHI>
InChI=1S/C35H43N3O8/c1-21(2)27(33(42)36-3)37-34(43)31(45-19-22-12-6-4-7-13-22)29(40)30(41)32(46-20-23-14-8-5-9-15-23)35(44)38-28-25-17-11-10-16-24(25)18-26(28)39/h4-17,21,26-32,39-41H,18-20H2,1-3H3,(H,36,42)(H,37,43)(H,38,44)/t26-,27+,28+,29-,30-,31-,32-/m1/s1

> <PHA_TPSA>
166.450000000

> <PHA_PSA>
164.484770000

$$$$
