1EBZ-BEC
PharmScreen

 89 92  0  0  0  0            999 V2000
  -13.6165   14.2959   28.1839 C   0  0  0  0  0  0  0  0  0  0  0  0
  -14.6241   14.5287   29.1448 C   0  0  0  0  0  0  0  0  0  0  0  0
  -14.9251   13.5370   30.1189 C   0  0  0  0  0  0  0  0  0  0  0  0
  -14.2088   12.3033   30.1283 C   0  0  0  0  0  0  0  0  0  0  0  0
  -13.1916   12.0635   29.1633 C   0  0  0  0  0  0  0  0  0  0  0  0
  -12.8944   13.0612   28.1890 C   0  0  0  0  0  0  0  0  0  0  0  0
  -13.2862   15.3602   27.1501 C   0  0  0  0  0  0  0  0  0  0  0  0
  -11.8807   15.6959   27.0935 O   0  0  0  0  0  0  0  0  0  0  0  0
  -11.4127   16.6070   28.1599 C   0  0  0  0  0  0  0  0  0  0  0  0
  -10.4070   17.6593   27.5576 C   0  0  0  0  0  0  0  0  0  0  0  0
   -9.7586   17.1389   26.3085 C   0  0  0  0  0  0  0  0  0  0  0  0
   -8.4677   17.8708   25.9493 C   0  0  0  0  0  0  0  0  0  0  0  0
   -7.5890   17.8207   27.1259 O   0  0  0  0  0  0  0  0  0  0  0  0
   -6.6478   18.9248   27.2393 C   0  0  0  0  0  0  0  0  0  0  0  0
   -5.4972   18.8687   26.2325 C   0  0  0  0  0  0  0  0  0  0  0  0
   -4.5863   17.7563   26.2450 C   0  0  0  0  0  0  0  0  0  0  0  0
   -3.5231   17.6970   25.2883 C   0  0  0  0  0  0  0  0  0  0  0  0
   -3.3762   18.7393   24.3282 C   0  0  0  0  0  0  0  0  0  0  0  0
   -4.2763   19.8367   24.3148 C   0  0  0  0  0  0  0  0  0  0  0  0
   -5.3415   19.9049   25.2655 C   0  0  0  0  0  0  0  0  0  0  0  0
   -7.8905   17.1220   24.7952 C   0  0  0  0  0  0  0  0  0  0  0  0
   -7.5967   15.9447   24.9926 O   0  0  0  0  0  0  0  0  0  0  0  0
   -7.7091   17.7420   23.6512 N   0  0  0  0  0  0  0  0  0  0  0  0
   -7.1444   17.1833   22.4355 C   0  0  0  0  0  0  0  0  0  0  0  0
   -8.2397   16.7826   21.4670 C   0  0  0  0  0  0  0  0  0  0  0  0
   -7.8349   16.9385   20.1184 C   0  0  0  0  0  0  0  0  0  0  0  0
   -8.6931   16.6306   19.0243 C   0  0  0  0  0  0  0  0  0  0  0  0
   -9.9992   16.1484   19.3166 C   0  0  0  0  0  0  0  0  0  0  0  0
  -10.4349   15.9799   20.6733 C   0  0  0  0  0  0  0  0  0  0  0  0
   -9.5522   16.2988   21.7524 C   0  0  0  0  0  0  0  0  0  0  0  0
   -6.4169   17.4613   20.0761 C   0  0  0  0  0  0  0  0  0  0  0  0
   -6.2636   18.0305   21.5141 C   0  0  0  0  0  0  0  0  0  0  0  0
   -6.7948   19.3546   21.5694 O   0  0  0  0  0  0  0  0  0  0  0  0
  -10.7242   17.2893   25.2004 O   0  0  0  0  0  0  0  0  0  0  0  0
  -11.0440   18.9054   27.1617 O   0  0  0  0  0  0  0  0  0  0  0  0
  -10.8174   15.7854   29.3044 C   0  0  0  0  0  0  0  0  0  0  0  0
   -9.8901   15.0059   29.0484 O   0  0  0  0  0  0  0  0  0  0  0  0
  -11.3340   15.9412   30.5288 N   0  0  0  0  0  0  0  0  0  0  0  0
  -10.8583   15.2112   31.7002 C   0  0  0  0  0  0  0  0  0  0  0  0
   -9.6340   15.6787   32.6092 C   0  0  0  0  0  0  0  0  0  0  0  0
   -9.9419   15.8269   34.1303 C   0  0  0  0  0  0  0  0  0  0  0  0
   -8.9037   16.9506   32.0743 C   0  0  0  0  0  0  0  0  0  0  0  0
  -12.1288   14.9721   32.5084 C   0  0  0  0  0  0  0  0  0  0  0  0
  -12.9267   15.9178   32.6990 O   0  0  0  0  0  0  0  0  0  0  0  0
  -12.2894   13.6896   32.9810 N   0  0  0  0  0  0  0  0  0  0  0  0
  -13.4775   13.4021   33.7618 C   0  0  0  0  0  0  0  0  0  0  0  0
  -15.1634   15.4597   29.1371 H   0  0  0  0  0  0  0  0  0  0  0  0
  -15.6942   13.7189   30.8490 H   0  0  0  0  0  0  0  0  0  0  0  0
  -14.4371   11.5530   30.8650 H   0  0  0  0  0  0  0  0  0  0  0  0
  -12.6500   11.1338   29.1696 H   0  0  0  0  0  0  0  0  0  0  0  0
  -12.1257   12.8835   27.4574 H   0  0  0  0  0  0  0  0  0  0  0  0
  -13.5794   15.0047   26.1513 H   0  0  0  0  0  0  0  0  0  0  0  0
  -13.8352   16.2837   27.3863 H   0  0  0  0  0  0  0  0  0  0  0  0
  -12.2893   17.1334   28.5655 H   0  0  0  0  0  0  0  0  0  0  0  0
   -9.6667   17.9025   28.3340 H   0  0  0  0  0  0  0  0  0  0  0  0
   -9.5145   16.0791   26.4734 H   0  0  0  0  0  0  0  0  0  0  0  0
   -8.5821   18.9323   25.6846 H   0  0  0  0  0  0  0  0  0  0  0  0
   -6.2420   18.9013   28.2615 H   0  0  0  0  0  0  0  0  0  0  0  0
   -7.2184   19.8537   27.0926 H   0  0  0  0  0  0  0  0  0  0  0  0
   -4.7015   16.9698   26.9701 H   0  0  0  0  0  0  0  0  0  0  0  0
   -2.8360   16.8690   25.2922 H   0  0  0  0  0  0  0  0  0  0  0  0
   -2.5782   18.6961   23.6076 H   0  0  0  0  0  0  0  0  0  0  0  0
   -4.1534   20.6180   23.5853 H   0  0  0  0  0  0  0  0  0  0  0  0
   -6.0249   20.7359   25.2525 H   0  0  0  0  0  0  0  0  0  0  0  0
   -8.0370   18.7918   23.6735 H   0  0  0  0  0  0  0  0  0  0  0  0
   -6.5490   16.4152   22.9507 H   0  0  0  0  0  0  0  0  0  0  0  0
   -8.3644   16.7586   18.0078 H   0  0  0  0  0  0  0  0  0  0  0  0
  -10.6657   15.9081   18.5067 H   0  0  0  0  0  0  0  0  0  0  0  0
  -11.4252   15.6138   20.8806 H   0  0  0  0  0  0  0  0  0  0  0  0
   -9.8739   16.1754   22.7717 H   0  0  0  0  0  0  0  0  0  0  0  0
   -5.7271   16.6329   19.8572 H   0  0  0  0  0  0  0  0  0  0  0  0
   -6.3316   18.2268   19.2907 H   0  0  0  0  0  0  0  0  0  0  0  0
   -5.2101   18.0926   21.8246 H   0  0  0  0  0  0  0  0  0  0  0  0
   -6.7719   19.9174   22.5143 H   0  0  0  0  0  0  0  0  0  0  0  0
  -10.4506   16.9669   24.1849 H   0  0  0  0  0  0  0  0  0  0  0  0
  -10.4420   19.7171   26.7273 H   0  0  0  0  0  0  0  0  0  0  0  0
  -12.1582   16.6629   30.6278 H   0  0  0  0  0  0  0  0  0  0  0  0
  -10.3878   14.3472   31.2082 H   0  0  0  0  0  0  0  0  0  0  0  0
   -8.9270   14.8388   32.5411 H   0  0  0  0  0  0  0  0  0  0  0  0
  -10.4557   14.9233   34.4901 H   0  0  0  0  0  0  0  0  0  0  0  0
  -10.5868   16.7036   34.2901 H   0  0  0  0  0  0  0  0  0  0  0  0
   -9.0005   15.9584   34.6838 H   0  0  0  0  0  0  0  0  0  0  0  0
   -8.6944   16.8292   31.0012 H   0  0  0  0  0  0  0  0  0  0  0  0
   -7.9579   17.0868   32.6192 H   0  0  0  0  0  0  0  0  0  0  0  0
   -9.5442   17.8320   32.2255 H   0  0  0  0  0  0  0  0  0  0  0  0
  -11.5544   12.8950   32.7850 H   0  0  0  0  0  0  0  0  0  0  0  0
  -13.4682   12.3457   34.0681 H   0  0  0  0  0  0  0  0  0  0  0  0
  -14.3726   13.5997   33.1537 H   0  0  0  0  0  0  0  0  0  0  0  0
  -13.4927   14.0430   34.6557 H   0  0  0  0  0  0  0  0  0  0  0  0
  1  2  2  0  0  0  0
  1  6  1  0  0  0  0
  1  7  1  0  0  0  0
  2  3  1  0  0  0  0
  2 47  1  0  0  0  0
  3  4  2  0  0  0  0
  3 48  1  0  0  0  0
  4  5  1  0  0  0  0
  4 49  1  0  0  0  0
  5  6  2  0  0  0  0
  5 50  1  0  0  0  0
  6 51  1  0  0  0  0
 15 16  2  0  0  0  0
 15 20  1  0  0  0  0
 15 14  1  0  0  0  0
 16 17  1  0  0  0  0
 16 60  1  0  0  0  0
 17 18  2  0  0  0  0
 17 61  1  0  0  0  0
 18 19  1  0  0  0  0
 18 62  1  0  0  0  0
 19 20  2  0  0  0  0
 19 63  1  0  0  0  0
 20 64  1  0  0  0  0
 14 13  1  0  0  0  0
 14 58  1  0  0  0  0
 14 59  1  0  0  0  0
 13 12  1  0  0  0  0
 12 11  1  0  0  0  0
 12 21  1  0  0  0  0
 12 57  1  0  0  0  0
 11 10  1  0  0  0  0
 11 34  1  0  0  0  0
 11 56  1  0  0  0  0
 10  9  1  0  0  0  0
 10 35  1  0  0  0  0
 10 55  1  0  0  0  0
  9 36  1  0  0  0  0
  9  8  1  0  0  0  0
  9 54  1  0  0  0  0
 36 37  2  0  0  0  0
 36 38  1  0  0  0  0
 38 39  1  0  0  0  0
 38 77  1  0  0  0  0
  8  7  1  0  0  0  0
  7 52  1  0  0  0  0
  7 53  1  0  0  0  0
 35 76  1  0  0  0  0
 34 75  1  0  0  0  0
 21 22  2  0  0  0  0
 21 23  1  0  0  0  0
 23 24  1  0  0  0  0
 23 65  1  0  0  0  0
 24 25  1  0  0  0  0
 24 32  1  0  0  0  0
 24 66  1  0  0  0  0
 25 26  1  0  0  0  0
 25 30  2  0  0  0  0
 26 27  2  0  0  0  0
 26 31  1  0  0  0  0
 30 29  1  0  0  0  0
 30 70  1  0  0  0  0
 29 28  2  0  0  0  0
 29 69  1  0  0  0  0
 28 27  1  0  0  0  0
 28 68  1  0  0  0  0
 32 33  1  0  0  0  0
 32 31  1  0  0  0  0
 32 73  1  0  0  0  0
 33 74  1  0  0  0  0
 27 67  1  0  0  0  0
 31 71  1  0  0  0  0
 31 72  1  0  0  0  0
 39 40  1  0  0  0  0
 39 43  1  0  0  0  0
 39 78  1  0  0  0  0
 40 41  1  0  0  0  0
 40 42  1  0  0  0  0
 40 79  1  0  0  0  0
 41 80  1  0  0  0  0
 41 81  1  0  0  0  0
 41 82  1  0  0  0  0
 42 83  1  0  0  0  0
 42 84  1  0  0  0  0
 42 85  1  0  0  0  0
 43 44  2  0  0  0  0
 43 45  1  0  0  0  0
 45 46  1  0  0  0  0
 45 86  1  0  0  0  0
 46 87  1  0  0  0  0
 46 88  1  0  0  0  0
 46 89  1  0  0  0  0
V    1   0.0000    0.2062   -0.0576   -0.0806    0.3591   0
V    2   0.0000    0.1769   -0.0650   -0.0953    0.3445   0
V    3   0.0000    0.1842   -0.0650   -0.1026    0.3445   0
V    4   0.0000    0.1989   -0.0503   -0.1026    0.3518   0
V    5   0.0000    0.1989   -0.0576   -0.1026    0.3518   0
V    6   0.0000    0.1915   -0.0576   -0.1026    0.3518   0
V    7   0.0000    0.0816   -0.0210   -0.0440    0.1539   0
V    8   0.0000    0.4627   -0.0210   -0.1466    0.6303   0
V    9   0.0000    0.0523   -0.0283   -0.0366    0.1173   0
V   10   0.0000    0.0669   -0.0137   -0.0660    0.1392   0
V   11   0.0000    0.0669   -0.0137   -0.0660    0.1466   0
V   12   0.0000    0.0669   -0.0210   -0.0366    0.1173   0
V   13   0.0000    0.2062   -0.2775   -0.1466    0.6376   0
V   14   0.0000    0.0963   -0.0210   -0.0440    0.1539   0
V   15   0.0000    0.1695   -0.0943   -0.0806    0.3445   0
V   16   0.0000    0.1989   -0.0576   -0.1026    0.3591   0
V   17   0.0000    0.1989   -0.0503   -0.1026    0.3591   0
V   18   0.0000    0.1989   -0.0503   -0.0953    0.3518   0
V   19   0.0000    0.1915   -0.0650   -0.1026    0.3591   0
V   20   0.0000    0.1915   -0.0650   -0.1026    0.3664   0
V   21   0.0000    0.2355   -0.0283   -0.0806    0.3518   0
V   22   0.0000   -0.5780   -1.3841   -0.2418    1.0553   A
V   23   0.0000    0.3454   -0.2042   -0.1392    0.6889   D
V   24   0.0000    0.0669   -0.0137   -0.0366    0.1173   0
V   25   0.0000    0.1476   -0.1089   -0.0806    0.3445   0
V   26   0.0000    0.1695   -0.1016   -0.0806    0.3591   0
V   27   0.0000    0.1842   -0.0576   -0.0953    0.3518   0
V   28   0.0000    0.2062   -0.0503   -0.1026    0.3591   0
V   29   0.0000    0.1989   -0.0576   -0.1026    0.3591   0
V   30   0.0000    0.1989   -0.0503   -0.0953    0.3518   0
V   31   0.0000    0.1036   -0.0137   -0.0513    0.1686   0
V   32   0.0000    0.0743   -0.0137   -0.0586    0.1539   0
V   33   0.0000   -1.1057   -1.7433   -0.1173    0.7475  AD
V   34   0.0000   -0.0576   -0.7099   -0.1246    0.7768  AD
V   35   0.0000   -0.3948   -1.0397   -0.1392    0.7915  AD
V   36   0.0000    0.2282   -0.0503   -0.0879    0.3664   0
V   37   0.0000   -0.3508   -1.1789   -0.2418    1.0773   A
V   38   0.0000    0.4700   -0.0870   -0.1319    0.6816   D
V   39   0.0000    0.0450   -0.0210   -0.0293    0.0879   0
V   40   0.0000    0.0596   -0.0137   -0.0220    0.0953   0
V   41   0.0000    0.1109   -0.0210   -0.0513    0.1832   0
V   42   0.0000    0.1182   -0.0137   -0.0513    0.1905   0
V   43   0.0000    0.2502   -0.0283   -0.0806    0.3591   0
V   44   0.0000   -1.5161   -2.3442   -0.2492    1.0773   A
V   45   0.0000    0.4041   -0.2335   -0.1466    0.7768   D
V   46   0.0000    0.1036   -0.0357   -0.0586    0.2052   0
V   47   0.0000    0.2502   -0.0210   -0.1979    0.4690   0
V   48   0.0000    0.2282   -0.0503   -0.2052    0.4837   0
V   49   0.0000    0.2062   -0.0723   -0.2052    0.4837   0
V   50   0.0000    0.1989   -0.0796   -0.2052    0.4837   0
V   51   0.0000    0.1989   -0.0796   -0.2052    0.4837   0
V   52   0.0000    0.2062   -0.0650   -0.2052    0.4764   0
V   53   0.0000    0.1842   -0.0796   -0.1979    0.4544   0
V   54   0.0000    0.1549   -0.0943   -0.1832    0.4397   0
V   55   0.0000    0.2209   -0.0357   -0.1979    0.4544   0
V   56   0.0000    0.2355   -0.0210   -0.1979    0.4617   0
V   57   0.0000    0.1769   -0.0796   -0.1979    0.4544   0
V   58   0.0000    0.2282   -0.0503   -0.2052    0.4764   0
V   59   0.0000    0.2355   -0.0283   -0.1979    0.4544   0
V   60   0.0000    0.2135   -0.0723   -0.2125    0.4837   0
V   61   0.0000    0.2135   -0.0723   -0.2052    0.4837   0
V   62   0.0000    0.2209   -0.0650   -0.2052    0.4837   0
V   63   0.0000    0.2355   -0.0430   -0.2052    0.4837   0
V   64   0.0000    0.3015    0.0230   -0.2125    0.4837   0
V   65   0.0000   -0.3361   -0.4094   -0.0953    0.1686   0
V   66   0.0000    0.2502   -0.0357   -0.2052    0.4837   0
V   67   0.0000    0.2209   -0.0503   -0.2052    0.4837   0
V   68   0.0000    0.2135   -0.0576   -0.2125    0.4837   0
V   69   0.0000    0.2209   -0.0576   -0.2125    0.4837   0
V   70   0.0000    0.2355   -0.0430   -0.2052    0.4837   0
V   71   0.0000    0.3015    0.0230   -0.2125    0.4910   0
V   72   0.0000    0.2135   -0.0723   -0.2052    0.4910   0
V   73   0.0000    0.2575   -0.0210   -0.2125    0.4910   0
V   74   0.0000    0.0450   -0.0137   -0.1759    0.2345   0
V   75   0.0000   -0.4974   -0.5560   -0.1832    0.2418   0
V   76   0.0000   -0.4827   -0.5413   -0.1759    0.2418   0
V   77   0.0000    0.0669   -0.0137   -0.1026    0.1759   0
V   78   0.0000    0.1622   -0.1089   -0.1979    0.4690   0
V   79   0.0000    0.2355   -0.0357   -0.1979    0.4837   0
V   80   0.0000    0.2209   -0.0576   -0.2052    0.4764   0
V   81   0.0000    0.1842   -0.0870   -0.2052    0.4837   0
V   82   0.0000    0.2135   -0.0650   -0.2125    0.4764   0
V   83   0.0000    0.2575   -0.0137   -0.2052    0.4837   0
V   84   0.0000    0.2575   -0.0137   -0.2052    0.4764   0
V   85   0.0000    0.2209   -0.0503   -0.2125    0.4764   0
V   86   0.0000   -0.8858   -0.9591   -0.1099    0.1832   0
V   87   0.0000    0.2135   -0.0576   -0.2052    0.4764   0
V   88   0.0000    0.2135   -0.0576   -0.2052    0.4764   0
V   89   0.0000    0.0889   -0.1749   -0.2052    0.4764   0
M  END
> <PHA_LIPINSKI_HB_ACCEPTORS>
11

> <PHA_LIPINSKI_HB_DONORS>
6

> <PHA_MOLECULAR_WEIGHT>
633

> <PHA_WILDMAN-CRIPPEN_LOGP>
1.540300

> <PHA_LIPINSKI_RO5_COMPLIANCE>
1/4

$$$$
